<?xml version="1.0" encoding="UTF-8"?>

<!-- generated on Thu Oct 22 21:05:11 2020 by Eclipse SUMO polyconvert Version 1.7.0
<configuration xmlns:xsi="http://www.w3.org/2001/XMLSchema-instance" xsi:noNamespaceSchemaLocation="http://sumo.dlr.de/xsd/polyconvertConfiguration.xsd">

    <input>
        <net-file value="osm.net.xml"/>
        <osm-files value="osm_bbox.osm.xml"/>
        <osm.keep-full-type value="true"/>
        <type-file value="/home/sami/sumo/data/typemap/osmPolyconvert.typ.xml"/>
    </input>

    <output>
        <output-file value="osm.poly.xml"/>
    </output>

    <processing>
        <poi-layer-offset value="5"/>
    </processing>

    <report>
        <verbose value="true"/>
    </report>

</configuration>
-->

<additional xmlns:xsi="http://www.w3.org/2001/XMLSchema-instance" xsi:noNamespaceSchemaLocation="http://sumo.dlr.de/xsd/additional_file.xsd">
    <location netOffset="-301197.75,-2751942.96" convBoundary="-1020.29,-2047.06,4518.80,2226.13" origBoundary="67.021910,24.851514,67.077119,24.889669" projParameter="+proj=utm +zone=42 +ellps=WGS84 +datum=WGS84 +units=m +no_defs"/>

    <poly id="301663372" type="leisure.pitch" color="207,245,201" fill="1" layer="-2.00" shape="1696.740660,943.162110 1777.148576,928.238613 1758.274303,829.838331 1677.869624,845.027743 1696.740660,943.162110"/>
    <poly id="301663372#1" type="sport.cricket" color="79,230,125" fill="1" layer="-2.00" shape="1696.740660,943.162110 1777.148576,928.238613 1758.274303,829.838331 1677.869624,845.027743 1696.740660,943.162110"/>
    <poly id="39997662" type="landuse.recreation_ground" color="194,194,130" fill="1" layer="-3.00" shape="2040.646708,649.494028 2104.280217,610.626909 2070.415221,547.273450 2016.982022,572.190211 2020.292376,621.311913 2040.646708,649.494028"/>
    <poly id="39997663" type="tourism.attraction" color="207,245,201" fill="0" layer="-2.00" shape="1455.909550,990.588862 1457.754308,972.647412 1461.466753,941.882752 1457.891579,905.439349 1453.245235,881.685858 1442.916259,828.875760 1429.587289,760.697627 1402.766952,689.810381 1378.930785,628.275456 1375.853429,619.489546 1370.108076,614.242941"/>
    <poly id="480430577" type="building.yes" color="255,230,230" fill="1" layer="-1.00" shape="895.770873,651.261344 901.613064,651.986067 902.201675,647.235710 896.287313,646.412313 895.770873,651.261344"/>
    <poly id="480430578" type="building.yes" color="255,230,230" fill="1" layer="-1.00" shape="898.131274,631.971772 903.853329,632.775779 904.442102,628.036500 898.600061,627.322852 898.131274,631.971772"/>
    <poly id="480430581" type="building.yes" color="255,230,230" fill="1" layer="-1.00" shape="826.238851,667.019428 908.739819,677.365638 919.944544,587.163974 837.702120,576.559112 826.238851,667.019428"/>
    <poly id="484044931" type="building.yes" color="255,230,230" fill="1" layer="-1.00" shape="641.364140,1046.053041 633.180974,1041.373661 631.211618,1040.072534 629.979104,1038.705395 629.362497,1037.296142 629.086895,1035.704708 629.159899,1033.055728 629.609870,1032.018878 630.049896,1030.993251 631.770075,1029.029604 633.704158,1027.882735 636.771244,1026.808175 640.367077,1026.656650 649.604198,1026.623268 667.991857,1026.158921 669.718112,1026.721248 671.581473,1027.680452 673.169242,1029.153269 675.353775,1031.359796 677.036264,1033.795139 677.730353,1034.970614 678.311642,1036.734912 678.571183,1040.719684 678.574061,1043.024115 678.221520,1045.211796 676.729813,1048.302224 674.210303,1051.606885 672.386203,1053.372598 670.854871,1054.413946 669.329335,1055.156072 666.819286,1056.311234 663.907656,1056.951459 662.380096,1056.851596 658.032318,1055.318833 641.364140,1046.053041"/>
    <poly id="484054271" type="building.yes" color="255,230,230" fill="1" layer="-1.00" shape="629.979104,1038.705395 618.987930,1032.038991 618.161934,1029.425123 619.319600,1027.702244 621.144177,1025.969754 636.771244,1026.808175 631.770075,1029.029604 629.609870,1032.018878 629.979104,1038.705395"/>
    <poly id="484054273" type="building.yes" color="255,230,230" fill="1" layer="-1.00" shape="668.558501,1037.429381 669.293597,1039.346571 669.363538,1041.395215 668.765295,1043.364852 667.576512,1045.032779 665.906107,1046.242319 663.933890,1046.846852 661.871420,1046.799012 659.940839,1046.084521 658.335574,1044.800304 657.229158,1043.065731 656.735616,1041.078586 656.937381,1038.948473 657.839243,1037.007699 659.343345,1035.479257 661.270357,1034.542999 663.399253,1034.290743 665.498104,1034.759069 667.252067,1035.841719 668.558501,1037.429381"/>
    <poly id="484054275" type="building.yes" color="255,230,230" fill="1" layer="-1.00" shape="666.819286,1056.311234 678.224000,1057.310244 679.658226,1037.601848 678.311642,1036.734912 678.571183,1040.719684 678.574061,1043.024115 678.221520,1045.211796 676.729813,1048.302224 674.210303,1051.606885 672.386203,1053.372598 670.854871,1054.413946 669.329335,1055.156072 666.819286,1056.311234"/>
    <poly id="484054277" type="building.yes" color="255,230,230" fill="1" layer="-1.00" shape="674.829107,1060.184348 675.045339,1057.655176 677.888899,1057.902269 677.672506,1060.420365 674.829107,1060.184348"/>
    <poly id="484054279" type="building.yes" color="255,230,230" fill="1" layer="-1.00" shape="677.016552,1059.787221 677.235025,1059.518173 677.351813,1059.206273 677.346866,1058.862889 677.241192,1058.543115 677.025164,1058.280326 676.729575,1058.107317 676.395004,1058.034583 676.062029,1058.072618 675.761123,1058.232061 675.522122,1058.479247 675.385125,1058.791438 675.359120,1059.090951 675.424056,1059.389154 675.579616,1059.663893 675.804950,1059.871151 676.089796,1059.999998 676.393415,1060.028862 676.725911,1059.957596 677.016552,1059.787221"/>
    <poly id="484054281" type="building.yes" color="255,230,230" fill="1" layer="-1.00" shape="676.809353,1059.435672 676.918110,1059.267917 676.955816,1059.079027 676.932734,1058.879934 676.859448,1058.703723 676.715909,1058.561761 676.542853,1058.475621 676.350385,1058.445156 676.158716,1058.470076 675.988373,1058.572243 675.848823,1058.707203 675.770539,1058.885598 675.753202,1059.085274 675.806597,1059.283930 675.920142,1059.448482 676.083732,1059.579076 676.276518,1059.631694 676.478612,1059.628783 676.659538,1059.559701 676.809353,1059.435672"/>
    <poly id="514835119" type="leisure.park" color="207,245,201" fill="1" layer="-2.00" shape="1955.982690,458.239156 2002.749589,430.071670 1957.732153,353.062338 1910.703793,382.042477 1955.982690,458.239156"/>
    <poly id="514835655" type="leisure.park" color="207,245,201" fill="1" layer="-2.00" shape="2163.778227,867.121456 2232.297106,824.329494 2196.553777,763.838891 2125.870860,807.271306 2163.778227,867.121456"/>
    <poly id="516015322" type="building.yes" color="255,230,230" fill="1" layer="-1.00" shape="1995.733255,585.345978 2013.444523,575.719658 2007.093576,564.155302 1989.382138,573.770552 1995.733255,585.345978"/>
    <poly id="516015323" type="building.yes" color="255,230,230" fill="1" layer="-1.00" shape="1972.323046,550.571260 1979.711469,564.004206 1999.899982,553.035089 1992.521680,539.601989 1972.323046,550.571260"/>
    <poly id="516015325" type="building.yes" color="255,230,230" fill="1" layer="-1.00" shape="1964.944555,537.127096 1972.323046,550.571260 1992.521680,539.601989 1985.143205,526.157816 1964.944555,537.127096"/>
    <poly id="516015327" type="building.yes" color="255,230,230" fill="1" layer="-1.00" shape="1957.566210,523.694013 1964.944555,537.127096 1985.143205,526.157816 1977.764875,512.724722 1957.566210,523.694013"/>
    <poly id="516015328" type="building.yes" color="255,230,230" fill="1" layer="-1.00" shape="1950.187851,510.260932 1957.566210,523.694013 1977.764875,512.724722 1970.386532,499.291632 1950.187851,510.260932"/>
    <poly id="516015330" type="building.yes" color="255,230,230" fill="1" layer="-1.00" shape="1942.809320,496.816778 1950.187851,510.260932 1970.386532,499.291632 1963.008017,485.847468 1942.809320,496.816778"/>
    <poly id="516015332" type="building.yes" color="255,230,230" fill="1" layer="-1.00" shape="1935.430934,483.383704 1942.809320,496.816778 1963.008017,485.847468 1955.619542,472.414529 1935.430934,483.383704"/>
    <poly id="516015333" type="building.yes" color="255,230,230" fill="1" layer="-1.00" shape="1921.125885,459.834832 1928.245012,472.806288 1947.621305,462.280813 1940.492088,449.309493 1921.125885,459.834832"/>
    <poly id="516015335" type="building.yes" color="255,230,230" fill="1" layer="-1.00" shape="1913.996483,446.852446 1921.125885,459.834832 1940.492088,449.309493 1933.362700,436.327098 1913.996483,446.852446"/>
    <poly id="516015336" type="building.yes" color="255,230,230" fill="1" layer="-1.00" shape="1906.867067,433.870064 1913.996483,446.852446 1933.362700,436.327098 1926.233458,423.355784 1906.867067,433.870064"/>
    <poly id="516015343" type="building.yes" color="255,230,230" fill="1" layer="-1.00" shape="1951.767243,563.418044 1959.553857,576.424275 1975.408813,567.034973 1967.622053,554.017656 1951.767243,563.418044"/>
    <poly id="516015344" type="building.yes" color="255,230,230" fill="1" layer="-1.00" shape="1943.970353,550.400884 1951.767243,563.418044 1967.622053,554.017656 1959.835437,541.011420 1943.970353,550.400884"/>
    <poly id="516015346" type="building.yes" color="255,230,230" fill="1" layer="-1.00" shape="1936.183712,537.394660 1943.970353,550.400884 1959.835437,541.011420 1952.038544,527.994256 1936.183712,537.394660"/>
    <poly id="516015347" type="building.yes" color="255,230,230" fill="1" layer="-1.00" shape="1928.396898,524.377362 1936.183712,537.394660 1952.038544,527.994256 1944.251900,514.988027 1928.396898,524.377362"/>
    <poly id="516015349" type="building.yes" color="255,230,230" fill="1" layer="-1.00" shape="1920.600124,511.371290 1928.396898,524.377362 1944.251900,514.988027 1936.465242,501.981802 1920.600124,511.371290"/>
    <poly id="516015350" type="building.yes" color="255,230,230" fill="1" layer="-1.00" shape="1895.475947,475.502222 1902.717303,488.538391 1922.352483,477.743273 1915.111141,464.707094 1895.475947,475.502222"/>
    <poly id="516015352" type="building.yes" color="255,230,230" fill="1" layer="-1.00" shape="1888.224472,462.466200 1895.475947,475.502222 1915.111141,464.707094 1907.869786,451.670918 1888.224472,462.466200"/>
    <poly id="516015354" type="building.yes" color="255,230,230" fill="1" layer="-1.00" shape="1880.983090,449.430036 1888.224472,462.466200 1907.869786,451.670918 1900.618313,438.634890 1880.983090,449.430036"/>
    <poly id="516015356" type="building.yes" color="255,230,230" fill="1" layer="-1.00" shape="1873.741694,436.393876 1880.983090,449.430036 1900.618313,438.634890 1893.376932,425.598721 1873.741694,436.393876"/>
    <poly id="516015359" type="building.yes" color="255,230,230" fill="1" layer="-1.00" shape="1972.629419,600.234509 1992.655280,589.910292 1985.962577,577.065659 1965.946806,587.389740 1972.629419,600.234509"/>
    <poly id="516015361" type="building.yes" color="255,230,230" fill="1" layer="-1.00" shape="1912.813441,498.365077 1920.600124,511.371290 1936.465242,501.981802 1928.668307,488.964648 1912.813441,498.365077"/>
    <poly id="516015364" type="building.yes" color="255,230,230" fill="1" layer="-1.00" shape="1972.472253,672.594407 1980.086695,685.580951 1999.342360,674.414663 1991.717670,661.417177 1972.472253,672.594407"/>
    <poly id="516015365" type="building.yes" color="255,230,230" fill="1" layer="-1.00" shape="1964.847535,659.596934 1972.472253,672.594407 1991.717670,661.417177 1984.093124,648.430772 1964.847535,659.596934"/>
    <poly id="516015367" type="building.yes" color="255,230,230" fill="1" layer="-1.00" shape="1957.222962,646.610542 1964.847535,659.596934 1984.093124,648.430772 1976.468406,635.433293 1957.222962,646.610542"/>
    <poly id="516015369" type="building.yes" color="255,230,230" fill="1" layer="-1.00" shape="1949.598217,633.613076 1957.222962,646.610542 1976.468406,635.433293 1968.853938,622.446750 1949.598217,633.613076"/>
    <poly id="516015370" type="building.yes" color="255,230,230" fill="1" layer="-1.00" shape="1941.973617,620.626691 1949.598217,633.613076 1968.853938,622.446750 1961.229194,609.449278 1941.973617,620.626691"/>
    <poly id="516015372" type="building.yes" color="255,230,230" fill="1" layer="-1.00" shape="1934.348845,607.629232 1941.973617,620.626691 1961.229194,609.449278 1953.604594,596.462886 1934.348845,607.629232"/>
    <poly id="516015373" type="building.yes" color="255,230,230" fill="1" layer="-1.00" shape="1919.424362,581.751542 1927.007790,594.683111 1946.874882,583.153475 1939.281363,570.222041 1919.424362,581.751542"/>
    <poly id="516015374" type="building.yes" color="255,230,230" fill="1" layer="-1.00" shape="1911.830657,568.809043 1919.424362,581.751542 1939.281363,570.222041 1931.697936,557.290464 1911.830657,568.809043"/>
    <poly id="516015375" type="building.yes" color="255,230,230" fill="1" layer="-1.00" shape="1904.247202,555.877481 1911.830657,568.809043 1931.697936,557.290464 1924.104232,544.347960 1904.247202,555.877481"/>
    <poly id="516015376" type="building.yes" color="255,230,230" fill="1" layer="-1.00" shape="1896.653629,542.946066 1904.247202,555.877481 1924.104232,544.347960 1916.520778,531.416390 1896.653629,542.946066"/>
    <poly id="516015377" type="building.yes" color="255,230,230" fill="1" layer="-1.00" shape="1889.059884,530.003578 1896.653629,542.946066 1916.520778,531.416390 1908.927206,518.484969 1889.059884,530.003578"/>
    <poly id="516015378" type="building.yes" color="255,230,230" fill="1" layer="-1.00" shape="1881.476389,517.072026 1889.059884,530.003578 1908.927206,518.484969 1901.333461,505.542475 1881.476389,517.072026"/>
    <poly id="516015379" type="building.yes" color="255,230,230" fill="1" layer="-1.00" shape="1867.282180,492.092412 1874.762114,504.848175 1891.431650,495.170139 1883.951728,482.414368 1867.282180,492.092412"/>
    <poly id="516015380" type="building.yes" color="255,230,230" fill="1" layer="-1.00" shape="1859.792129,479.336797 1867.282180,492.092412 1883.951728,482.414368 1876.461847,469.669821 1859.792129,479.336797"/>
    <poly id="516015381" type="building.yes" color="255,230,230" fill="1" layer="-1.00" shape="1852.312328,466.592117 1859.792129,479.336797 1876.461847,469.669821 1868.981900,456.914057 1852.312328,466.592117"/>
    <poly id="516015382" type="building.yes" color="255,230,230" fill="1" layer="-1.00" shape="1844.832356,453.836364 1852.312328,466.592117 1868.981900,456.914057 1861.501939,444.158295 1844.832356,453.836364"/>
    <poly id="516015383" type="building.yes" color="255,230,230" fill="1" layer="-1.00" shape="1837.352370,441.080614 1844.832356,453.836364 1861.501939,444.158295 1854.022124,431.413614 1837.352370,441.080614"/>
    <poly id="516015385" type="building.yes" color="255,230,230" fill="1" layer="-1.00" shape="1947.990921,685.851920 1955.335520,698.343754 1976.312901,686.720705 1968.795266,674.142705 1947.990921,685.851920"/>
    <poly id="516015386" type="building.yes" color="255,230,230" fill="1" layer="-1.00" shape="1940.656414,673.359945 1947.990921,685.851920 1968.795266,674.142705 1961.267512,661.564853 1940.656414,673.359945"/>
    <poly id="516015387" type="building.yes" color="255,230,230" fill="1" layer="-1.00" shape="1933.322053,660.879050 1940.656414,673.359945 1961.267512,661.564853 1953.749851,648.986859 1933.322053,660.879050"/>
    <poly id="516015388" type="building.yes" color="255,230,230" fill="1" layer="-1.00" shape="1925.977417,648.387226 1933.322053,660.879050 1953.749851,648.986859 1946.232177,636.408869 1925.977417,648.387226"/>
    <poly id="516015389" type="building.yes" color="255,230,230" fill="1" layer="-1.00" shape="1918.642872,635.895260 1925.977417,648.387226 1946.232177,636.408869 1938.714648,623.841959 1918.642872,635.895260"/>
    <poly id="516015390" type="building.yes" color="255,230,230" fill="1" layer="-1.00" shape="1894.113318,597.070652 1902.018219,609.864658 1921.906865,597.725323 1914.001819,584.920229 1894.113318,597.070652"/>
    <poly id="516015391" type="building.yes" color="255,230,230" fill="1" layer="-1.00" shape="1886.218508,584.276505 1894.113318,597.070652 1914.001819,584.920229 1906.096917,572.126217 1886.218508,584.276505"/>
    <poly id="516015392" type="building.yes" color="255,230,230" fill="1" layer="-1.00" shape="1878.313579,571.482506 1886.218508,584.276505 1906.096917,572.126217 1898.202107,559.332063 1878.313579,571.482506"/>
    <poly id="516015393" type="building.yes" color="255,230,230" fill="1" layer="-1.00" shape="1870.408478,558.677435 1878.313579,571.482506 1898.202107,559.332063 1890.297178,546.538058 1870.408478,558.677435"/>
    <poly id="516015394" type="building.yes" color="255,230,230" fill="1" layer="-1.00" shape="1862.503521,545.883444 1870.408478,558.677435 1890.297178,546.538058 1882.392076,533.732980 1862.503521,545.883444"/>
    <poly id="516015395" type="building.yes" color="255,230,230" fill="1" layer="-1.00" shape="1841.952138,506.093465 1850.011994,518.408827 1867.477009,507.112898 1859.417164,494.797527 1841.952138,506.093465"/>
    <poly id="516015396" type="building.yes" color="255,230,230" fill="1" layer="-1.00" shape="1833.892268,493.778106 1841.952138,506.093465 1859.417164,494.797527 1851.357305,482.482159 1833.892268,493.778106"/>
    <poly id="516015397" type="building.yes" color="255,230,230" fill="1" layer="-1.00" shape="1825.832384,481.462752 1833.892268,493.778106 1851.357305,482.482159 1843.287327,470.166940 1825.832384,481.462752"/>
    <poly id="516015398" type="building.yes" color="255,230,230" fill="1" layer="-1.00" shape="1817.772487,469.147402 1825.832384,481.462752 1843.287327,470.166940 1835.227440,457.851580 1817.772487,469.147402"/>
    <poly id="516015399" type="building.yes" color="255,230,230" fill="1" layer="-1.00" shape="1809.712576,456.832056 1817.772487,469.147402 1835.227440,457.851580 1827.167540,445.536224 1809.712576,456.832056"/>
    <poly id="516015400" type="building.yes" color="255,230,230" fill="1" layer="-1.00" shape="1911.298211,623.403442 1918.642872,635.895260 1938.714648,623.841959 1931.186843,611.264120 1911.298211,623.403442"/>
    <poly id="516015401" type="building.yes" color="255,230,230" fill="1" layer="-1.00" shape="1854.608656,533.089312 1862.503521,545.883444 1882.392076,533.732980 1874.497224,520.938837 1854.608656,533.089312"/>
    <poly id="516015402" type="building.yes" color="255,230,230" fill="1" layer="-1.00" shape="1801.652651,444.516713 1809.712576,456.832056 1827.167540,445.536224 1819.107626,433.220873 1801.652651,444.516713"/>
    <poly id="516021366" type="building.yes" color="255,230,230" fill="1" layer="-1.00" shape="2140.847381,573.166339 2148.927509,586.921845 2167.611890,576.074198 2159.531618,562.307606 2140.847381,573.166339"/>
    <poly id="516021367" type="building.yes" color="255,230,230" fill="1" layer="-1.00" shape="2132.767237,559.410838 2140.847381,573.166339 2159.531618,562.307606 2151.451488,548.552094 2132.767237,559.410838"/>
    <poly id="516021368" type="building.yes" color="255,230,230" fill="1" layer="-1.00" shape="2124.687079,545.655340 2132.767237,559.410838 2151.451488,548.552094 2143.371344,534.796586 2124.687079,545.655340"/>
    <poly id="516021369" type="building.yes" color="255,230,230" fill="1" layer="-1.00" shape="2116.596800,531.899990 2124.687079,545.655340 2143.371344,534.796586 2135.281079,521.041226 2116.596800,531.899990"/>
    <poly id="516021370" type="building.yes" color="255,230,230" fill="1" layer="-1.00" shape="2108.516611,518.144500 2116.596800,531.899990 2135.281079,521.041226 2127.200904,507.285726 2108.516611,518.144500"/>
    <poly id="516021371" type="building.yes" color="255,230,230" fill="1" layer="-1.00" shape="2086.450630,481.234276 2094.199422,494.429461 2113.655649,483.127548 2105.896766,469.932497 2086.450630,481.234276"/>
    <poly id="516021372" type="building.yes" color="255,230,230" fill="1" layer="-1.00" shape="2078.691719,468.039239 2086.450630,481.234276 2105.896766,469.932497 2098.147975,456.737306 2078.691719,468.039239"/>
    <poly id="516021373" type="building.yes" color="255,230,230" fill="1" layer="-1.00" shape="2070.942899,454.844061 2078.691719,468.039239 2098.147975,456.737306 2090.399169,443.542118 2070.942899,454.844061"/>
    <poly id="516021374" type="building.yes" color="255,230,230" fill="1" layer="-1.00" shape="2063.194066,441.648887 2070.942899,454.844061 2090.399169,443.542118 2082.650350,430.346933 2063.194066,441.648887"/>
    <poly id="516021376" type="building.yes" color="255,230,230" fill="1" layer="-1.00" shape="2100.436406,504.389014 2108.516611,518.144500 2127.200904,507.285726 2119.120714,493.530230 2100.436406,504.389014"/>
    <poly id="516021384" type="building.yes" color="255,230,230" fill="1" layer="-1.00" shape="2119.013535,586.407826 2127.150667,599.907686 2143.816433,589.964115 2135.679314,576.464246 2119.013535,586.407826"/>
    <poly id="516021385" type="building.yes" color="255,230,230" fill="1" layer="-1.00" shape="2110.866284,572.908115 2119.013535,586.407826 2135.679314,576.464246 2127.532075,562.964526 2110.866284,572.908115"/>
    <poly id="516021386" type="building.yes" color="255,230,230" fill="1" layer="-1.00" shape="2102.729281,559.419339 2110.866284,572.908115 2127.532075,562.964526 2119.395084,549.475741 2102.729281,559.419339"/>
    <poly id="516021387" type="building.yes" color="255,230,230" fill="1" layer="-1.00" shape="2094.581999,545.919636 2102.729281,559.419339 2119.395084,549.475741 2111.247814,535.976029 2094.581999,545.919636"/>
    <poly id="516021388" type="building.yes" color="255,230,230" fill="1" layer="-1.00" shape="2086.444807,532.419792 2094.581999,545.919636 2111.247814,535.976029 2103.110635,522.476176 2086.444807,532.419792"/>
    <poly id="516021389" type="building.yes" color="255,230,230" fill="1" layer="-1.00" shape="2064.210925,495.079916 2072.434034,508.223990 2088.022450,498.561665 2079.789405,485.428804 2064.210925,495.079916"/>
    <poly id="516021390" type="building.yes" color="255,230,230" fill="1" layer="-1.00" shape="2055.977855,481.947067 2064.210925,495.079916 2079.789405,485.428804 2071.566451,472.295802 2055.977855,481.947067"/>
    <poly id="516021391" type="building.yes" color="255,230,230" fill="1" layer="-1.00" shape="2047.744770,468.814223 2055.977855,481.947067 2071.566451,472.295802 2063.333218,459.151872 2047.744770,468.814223"/>
    <poly id="516021393" type="building.yes" color="255,230,230" fill="1" layer="-1.00" shape="2039.521775,455.681238 2047.744770,468.814223 2063.333218,459.151872 2055.100128,446.019023 2039.521775,455.681238"/>
    <poly id="516021398" type="building.yes" color="255,230,230" fill="1" layer="-1.00" shape="2031.288660,442.548402 2039.521775,455.681238 2055.100128,446.019023 2046.877129,432.886034 2031.288660,442.548402"/>
    <poly id="516021416" type="building.yes" color="255,230,230" fill="1" layer="-1.00" shape="2078.297495,518.920096 2086.444807,532.419792 2103.110635,522.476176 2094.963335,508.976471 2078.297495,518.920096"/>
    <poly id="516021418" type="building.yes" color="255,230,230" fill="1" layer="-1.00" shape="2049.491242,552.757744 2069.143306,541.729933 2062.445340,529.926778 2042.793263,540.954597 2049.491242,552.757744"/>
    <poly id="516021419" type="building.yes" color="255,230,230" fill="1" layer="-1.00" shape="2026.861675,516.730916 2033.974336,529.259346 2051.721369,519.300199 2044.618826,506.771616 2026.861675,516.730916"/>
    <poly id="516021420" type="building.yes" color="255,230,230" fill="1" layer="-1.00" shape="2019.759108,504.202345 2026.861675,516.730916 2044.618826,506.771616 2037.506166,494.243181 2019.759108,504.202345"/>
    <poly id="516021421" type="building.yes" color="255,230,230" fill="1" layer="-1.00" shape="2012.656687,491.684853 2019.759108,504.202345 2037.506166,494.243181 2030.403758,481.725681 2012.656687,491.684853"/>
    <poly id="516021422" type="building.yes" color="255,230,230" fill="1" layer="-1.00" shape="2005.554095,479.156288 2012.656687,491.684853 2030.403758,481.725681 2023.301179,469.197108 2005.554095,479.156288"/>
    <poly id="516021423" type="building.yes" color="255,230,230" fill="1" layer="-1.00" shape="1998.441386,466.627870 2005.554095,479.156288 2023.301179,469.197108 2016.198587,456.668537 1998.441386,466.627870"/>
    <poly id="516021424" type="building.yes" color="255,230,230" fill="1" layer="-1.00" shape="1991.338770,454.099311 1998.441386,466.627870 2016.198587,456.668537 2009.085879,444.140114 1991.338770,454.099311"/>
    <poly id="516021425" type="building.yes" color="255,230,230" fill="1" layer="-1.00" shape="2003.332094,530.129794 2010.305361,542.804235 2029.139897,532.563600 2022.166485,519.878073 2003.332094,530.129794"/>
    <poly id="516021426" type="building.yes" color="255,230,230" fill="1" layer="-1.00" shape="1996.358656,517.444278 2003.332094,530.129794 2022.166485,519.878073 2015.193219,507.203625 1996.358656,517.444278"/>
    <poly id="516021427" type="building.yes" color="255,230,230" fill="1" layer="-1.00" shape="1989.385365,504.769843 1996.358656,517.444278 2015.193219,507.203625 2008.219942,494.529181 1989.385365,504.769843"/>
    <poly id="516021428" type="building.yes" color="255,230,230" fill="1" layer="-1.00" shape="1982.411903,492.084333 1989.385365,504.769843 2008.219942,494.529181 2001.246494,481.843663 1982.411903,492.084333"/>
    <poly id="516021429" type="building.yes" color="255,230,230" fill="1" layer="-1.00" shape="1975.438588,479.409903 1982.411903,492.084333 2001.246494,481.843663 1994.273192,469.169224 1975.438588,479.409903"/>
    <poly id="516021430" type="building.yes" color="255,230,230" fill="1" layer="-1.00" shape="2026.640957,566.301977 2045.720682,556.246199 2039.582911,544.745255 2020.513120,554.789819 2026.640957,566.301977"/>
    <poly id="516021431" type="building.yes" color="255,230,230" fill="1" layer="-1.00" shape="1968.465102,466.724399 1975.438588,479.409903 1994.273192,469.169224 1987.299720,456.483711 1968.465102,466.724399"/>
    <poly id="516045223" type="building.yes" color="255,230,230" fill="1" layer="-1.00" shape="2224.636713,522.400794 2232.769177,535.579483 2251.315676,524.268610 2243.183067,511.078834 2224.636713,522.400794"/>
    <poly id="516045224" type="building.yes" color="255,230,230" fill="1" layer="-1.00" shape="2216.504234,509.222109 2224.636713,522.400794 2243.183067,511.078834 2235.050601,497.900139 2216.504234,509.222109"/>
    <poly id="516045225" type="building.yes" color="255,230,230" fill="1" layer="-1.00" shape="2208.371740,496.043428 2216.504234,509.222109 2235.050601,497.900139 2226.918120,484.721447 2208.371740,496.043428"/>
    <poly id="516045226" type="building.yes" color="255,230,230" fill="1" layer="-1.00" shape="2200.239073,482.853674 2208.371740,496.043428 2226.918120,484.721447 2218.785625,471.542760 2200.239073,482.853674"/>
    <poly id="516045227" type="building.yes" color="255,230,230" fill="1" layer="-1.00" shape="2192.106550,469.675000 2200.239073,482.853674 2218.785625,471.542760 2210.643009,458.364221 2192.106550,469.675000"/>
    <poly id="516045228" type="building.yes" color="255,230,230" fill="1" layer="-1.00" shape="2168.836988,429.158998 2176.399081,442.024521 2194.953272,431.245266 2187.391192,418.379734 2168.836988,429.158998"/>
    <poly id="516045240" type="building.yes" color="255,230,230" fill="1" layer="-1.00" shape="2183.974012,456.496331 2192.106550,469.675000 2210.643009,458.364221 2202.510326,445.174465 2183.974012,456.496331"/>
    <poly id="516045241" type="building.yes" color="255,230,230" fill="1" layer="-1.00" shape="2191.747564,540.021280 2199.406703,553.317508 2219.307060,541.976158 2211.647936,528.679920 2191.747564,540.021280"/>
    <poly id="516045242" type="building.yes" color="255,230,230" fill="1" layer="-1.00" shape="2184.098517,526.724911 2191.747564,540.021280 2211.647936,528.679920 2203.988799,515.383686 2184.098517,526.724911"/>
    <poly id="516045243" type="building.yes" color="255,230,230" fill="1" layer="-1.00" shape="2176.439350,513.428691 2184.098517,526.724911 2203.988799,515.383686 2196.339911,502.098387 2176.439350,513.428691"/>
    <poly id="516045244" type="building.yes" color="255,230,230" fill="1" layer="-1.00" shape="2168.780329,500.143550 2176.439350,513.428691 2196.339911,502.098387 2188.680745,488.802160 2168.780329,500.143550"/>
    <poly id="516045245" type="building.yes" color="255,230,230" fill="1" layer="-1.00" shape="2161.121134,486.847336 2168.780329,500.143550 2188.680745,488.802160 2181.021566,475.505936 2161.121134,486.847336"/>
    <poly id="516045246" type="building.yes" color="255,230,230" fill="1" layer="-1.00" shape="2153.461926,473.551126 2161.121134,486.847336 2181.021566,475.505936 2173.362373,462.209716 2153.461926,473.551126"/>
    <poly id="516045247" type="building.yes" color="255,230,230" fill="1" layer="-1.00" shape="2139.034703,449.206109 2146.874402,462.400021 2166.038301,451.146685 2158.198458,437.941686 2139.034703,449.206109"/>
    <poly id="516045248" type="building.yes" color="255,230,230" fill="1" layer="-1.00" shape="2131.194831,436.001124 2139.034703,449.206109 2158.198458,437.941686 2150.358758,424.747768 2131.194831,436.001124"/>
    <poly id="516045259" type="building.yes" color="255,230,230" fill="1" layer="-1.00" shape="2171.697953,553.647098 2179.278165,567.077393 2195.141021,558.231119 2187.560820,544.800816 2171.697953,553.647098"/>
    <poly id="516045260" type="building.yes" color="255,230,230" fill="1" layer="-1.00" shape="2164.117726,540.216806 2171.697953,553.647098 2187.560820,544.800816 2179.990552,531.359295 2164.117726,540.216806"/>
    <poly id="516045261" type="building.yes" color="255,230,230" fill="1" layer="-1.00" shape="2156.547590,526.786374 2164.117726,540.216806 2179.990552,531.359295 2172.410323,517.928999 2156.547590,526.786374"/>