<?xml version="1.0" encoding="UTF-8"?>

<!-- generated on Thu Oct 22 21:05:10 2020 by Eclipse SUMO netconvert Version 1.7.0
<configuration xmlns:xsi="http://www.w3.org/2001/XMLSchema-instance" xsi:noNamespaceSchemaLocation="http://sumo.dlr.de/xsd/netconvertConfiguration.xsd">

    <input>
        <type-files value="/home/sami/sumo/data/typemap/osmNetconvert.typ.xml"/>
        <osm-files value="osm_bbox.osm.xml"/>
    </input>

    <output>
        <output-file value="osm.net.xml"/>
        <output.street-names value="true"/>
        <output.original-names value="true"/>
    </output>

    <projection>
        <proj.utm value="true"/>
    </projection>

    <processing>
        <geometry.remove value="true"/>
        <roundabouts.guess value="true"/>
        <lefthand value="true"/>
    </processing>

    <tls_building>
        <tls.discard-simple value="true"/>
        <tls.join value="true"/>
        <tls.guess-signals value="true"/>
        <tls.default-type value="actuated"/>
    </tls_building>

    <ramp_guessing>
        <ramps.guess value="true"/>
    </ramp_guessing>

    <junctions>
        <junctions.join value="true"/>
        <junctions.corner-detail value="5"/>
    </junctions>

    <report>
        <verbose value="true"/>
        <aggregate-warnings value="5"/>
    </report>

</configuration>
-->

<net version="1.6" junctionCornerDetail="5" lefthand="true" limitTurnSpeed="5.50" xmlns:xsi="http://www.w3.org/2001/XMLSchema-instance" xsi:noNamespaceSchemaLocation="http://sumo.dlr.de/xsd/net_file.xsd">

    <location netOffset="-301197.75,-2751942.96" convBoundary="0.00,-0.00,3005.35,2075.79" origBoundary="67.031927,24.869829,67.061944,24.888320" projParameter="+proj=utm +zone=42 +ellps=WGS84 +datum=WGS84 +units=m +no_defs"/>

    <type id="highway.bridleway" priority="1" numLanes="1" speed="2.78" allow="pedestrian" oneway="1" width="2.00"/>
    <type id="highway.bus_guideway" priority="1" numLanes="1" speed="27.78" allow="bus" oneway="1"/>
    <type id="highway.cycleway" priority="1" numLanes="1" speed="8.33" allow="bicycle" oneway="0" width="1.00"/>
    <type id="highway.footway" priority="1" numLanes="1" speed="2.78" allow="pedestrian" oneway="1" width="2.00"/>
    <type id="highway.ford" priority="1" numLanes="1" speed="2.78" allow="army" oneway="0"/>
    <type id="highway.living_street" priority="2" numLanes="1" speed="2.78" disallow="tram rail_urban rail rail_electric rail_fast ship" oneway="0"/>
    <type id="highway.motorway" priority="14" numLanes="2" speed="39.44" allow="private emergency authority army vip passenger hov taxi bus coach delivery truck trailer motorcycle evehicle custom1 custom2" oneway="1"/>
    <type id="highway.motorway_link" priority="9" numLanes="1" speed="22.22" allow="private emergency authority army vip passenger hov taxi bus coach delivery truck trailer motorcycle evehicle custom1 custom2" oneway="1"/>
    <type id="highway.path" priority="1" numLanes="1" speed="2.78" allow="pedestrian bicycle" oneway="1" width="2.00"/>
    <type id="highway.pedestrian" priority="1" numLanes="1" speed="2.78" allow="pedestrian" oneway="1" width="2.00"/>
    <type id="highway.primary" priority="12" numLanes="2" speed="27.78" disallow="tram rail_urban rail rail_electric rail_fast ship" oneway="0"/>
    <type id="highway.primary_link" priority="7" numLanes="1" speed="22.22" disallow="tram rail_urban rail rail_electric rail_fast ship" oneway="0"/>
    <type id="highway.raceway" priority="15" numLanes="2" speed="83.33" allow="vip" oneway="0"/>
    <type id="highway.residential" priority="3" numLanes="1" speed="13.89" disallow="tram rail_urban rail rail_electric rail_fast ship" oneway="0"/>
    <type id="highway.secondary" priority="11" numLanes="1" speed="27.78" disallow="tram rail_urban rail rail_electric rail_fast ship" oneway="0"/>
    <type id="highway.secondary_link" priority="6" numLanes="1" speed="22.22" disallow="tram rail_urban rail rail_electric rail_fast ship" oneway="0"/>
    <type id="highway.service" priority="1" numLanes="1" speed="5.56" allow="pedestrian delivery bicycle" oneway="0"/>
    <type id="highway.stairs" priority="1" numLanes="1" speed="1.39" allow="pedestrian" oneway="1" width="2.00"/>
    <type id="highway.step" priority="1" numLanes="1" speed="1.39" allow="pedestrian" oneway="1" width="2.00"/>
    <type id="highway.steps" priority="1" numLanes="1" speed="1.39" allow="pedestrian" oneway="1" width="2.00"/>
    <type id="highway.tertiary" priority="10" numLanes="1" speed="22.22" disallow="tram rail_urban rail rail_electric rail_fast ship" oneway="0"/>
    <type id="highway.tertiary_link" priority="5" numLanes="1" speed="22.22" disallow="tram rail_urban rail rail_electric rail_fast ship" oneway="0"/>
    <type id="highway.track" priority="1" numLanes="1" speed="5.56" allow="pedestrian motorcycle moped bicycle" oneway="0"/>
    <type id="highway.trunk" priority="13" numLanes="2" speed="27.78" disallow="pedestrian bicycle tram rail_urban rail rail_electric rail_fast ship" oneway="0"/>
    <type id="highway.trunk_link" priority="8" numLanes="1" speed="22.22" disallow="pedestrian bicycle tram rail_urban rail rail_electric rail_fast ship" oneway="0"/>
    <type id="highway.unclassified" priority="4" numLanes="1" speed="13.89" disallow="tram rail_urban rail rail_electric rail_fast ship" oneway="0"/>
    <type id="highway.unsurfaced" priority="1" numLanes="1" speed="8.33" disallow="tram rail_urban rail rail_electric rail_fast ship" oneway="0"/>
    <type id="railway.highspeed" priority="21" numLanes="1" speed="69.44" allow="rail_fast" oneway="1"/>
    <type id="railway.light_rail" priority="19" numLanes="1" speed="27.78" allow="rail_urban" oneway="1"/>
    <type id="railway.preserved" priority="16" numLanes="1" speed="27.78" allow="rail" oneway="1"/>
    <type id="railway.rail" priority="20" numLanes="1" speed="44.44" allow="rail" oneway="1"/>
    <type id="railway.subway" priority="18" numLanes="1" speed="27.78" allow="rail_urban" oneway="1"/>
    <type id="railway.tram" priority="17" numLanes="1" speed="13.89" allow="tram" oneway="1"/>

    <edge id=":1075013217_0" function="internal">
        <lane id=":1075013217_0_0" index="0" disallow="tram rail_urban rail rail_electric rail_fast ship" speed="7.71" length="9.06" shape="707.95,1019.29 705.05,1019.11 702.76,1018.50 701.09,1017.45 700.03,1015.98"/>
    </edge>
    <edge id=":1075013217_1" function="internal">
        <lane id=":1075013217_1_0" index="0" disallow="tram rail_urban rail rail_electric rail_fast ship" speed="9.06" length="12.80" shape="707.99,1022.49 704.11,1022.20 701.00,1021.23 698.66,1019.59 697.10,1017.27"/>
    </edge>
    <edge id=":1075013217_2" function="internal">
        <lane id=":1075013217_2_0" index="0" disallow="tram rail_urban rail rail_electric rail_fast ship" speed="16.67" length="12.24" shape="704.97,1027.18 700.03,1015.98"/>
        <lane id=":1075013217_2_1" index="1" disallow="tram rail_urban rail rail_electric rail_fast ship" speed="16.67" length="12.24" shape="702.04,1028.47 697.10,1017.27"/>
        <lane id=":1075013217_2_2" index="2" disallow="tram rail_urban rail rail_electric rail_fast ship" speed="16.67" length="12.24" shape="699.11,1029.76 694.18,1018.56"/>
    </edge>
    <edge id=":1365388128_0" function="internal">
        <lane id=":1365388128_0_0" index="0" disallow="tram rail_urban rail rail_electric rail_fast ship" speed="6.51" length="9.03" shape="1224.29,1138.36 1223.42,1140.67 1222.02,1142.16 1220.08,1142.81 1217.61,1142.62"/>
    </edge>
    <edge id=":1365388128_1" function="internal">
        <lane id=":1365388128_1_0" index="0" disallow="tram rail_urban rail rail_electric rail_fast ship" speed="11.11" length="14.42" shape="1224.29,1138.36 1221.21,1152.45"/>
    </edge>
    <edge id=":1365388128_2" function="internal">
        <lane id=":1365388128_2_0" index="0" disallow="tram rail_urban rail rail_electric rail_fast ship" speed="8.01" length="14.20" shape="1224.29,1138.36 1224.00,1142.24 1225.02,1145.28 1227.36,1147.48 1231.00,1148.85"/>
    </edge>
    <edge id=":1365388128_3" function="internal">
        <lane id=":1365388128_3_0" index="0" disallow="tram rail_urban rail rail_electric rail_fast ship" speed="3.65" length="4.67" shape="1224.29,1138.36 1224.81,1139.70 1225.51,1140.26 1226.37,1140.04 1227.41,1139.04"/>
    </edge>
    <edge id=":1365388128_4" function="internal">
        <lane id=":1365388128_4_0" index="0" disallow="tram rail_urban rail rail_electric rail_fast ship" speed="6.51" length="9.04" shape="1231.69,1145.72 1229.37,1144.85 1227.88,1143.45 1227.23,1141.51 1227.41,1139.04"/>
    </edge>
    <edge id=":1365388128_5" function="internal">
        <lane id=":1365388128_5_0" index="0" disallow="tram rail_urban rail rail_electric rail_fast ship" speed="11.11" length="14.41" shape="1231.69,1145.72 1217.61,1142.62"/>
    </edge>
    <edge id=":1365388128_6" function="internal">
        <lane id=":1365388128_6_0" index="0" disallow="tram rail_urban rail rail_electric rail_fast ship" speed="7.99" length="14.21" shape="1231.69,1145.72 1227.81,1145.43 1224.77,1146.46 1222.57,1148.79 1221.21,1152.45"/>
    </edge>
    <edge id=":1365388128_7" function="internal">
        <lane id=":1365388128_7_0" index="0" disallow="tram rail_urban rail rail_electric rail_fast ship" speed="3.65" length="4.67" shape="1231.69,1145.72 1230.35,1146.25 1229.78,1146.94 1230.00,1147.81 1231.00,1148.85"/>
    </edge>
    <edge id=":1365388128_8" function="internal">
        <lane id=":1365388128_8_0" index="0" disallow="tram rail_urban rail rail_electric rail_fast ship" speed="6.50" length="9.03" shape="1224.34,1153.12 1225.20,1150.80 1226.60,1149.31 1228.53,1148.66 1231.00,1148.85"/>
    </edge>
    <edge id=":1365388128_9" function="internal">
        <lane id=":1365388128_9_0" index="0" disallow="tram rail_urban rail rail_electric rail_fast ship" speed="11.11" length="14.41" shape="1224.34,1153.12 1227.41,1139.04"/>
    </edge>
    <edge id=":1365388128_10" function="internal">
        <lane id=":1365388128_10_0" index="0" disallow="tram rail_urban rail rail_electric rail_fast ship" speed="8.02" length="14.21" shape="1224.34,1153.12 1224.62,1149.24 1223.59,1146.19 1221.26,1143.99 1217.61,1142.62"/>
    </edge>
    <edge id=":1365388128_11" function="internal">
        <lane id=":1365388128_11_0" index="0" disallow="tram rail_urban rail rail_electric rail_fast ship" speed="3.65" length="4.67" shape="1224.34,1153.12 1223.81,1151.78 1223.12,1151.22 1222.25,1151.44 1221.21,1152.45"/>
    </edge>
    <edge id=":1365388128_12" function="internal">
        <lane id=":1365388128_12_0" index="0" disallow="tram rail_urban rail rail_electric rail_fast ship" speed="6.53" length="9.06" shape="1216.93,1145.75 1219.25,1146.62 1220.74,1148.02 1221.39,1149.97 1221.21,1152.45"/>
    </edge>
    <edge id=":1365388128_13" function="internal">
        <lane id=":1365388128_13_0" index="0" disallow="tram rail_urban rail rail_electric rail_fast ship" speed="11.11" length="14.41" shape="1216.93,1145.75 1231.00,1148.85"/>
    </edge>
    <edge id=":1365388128_14" function="internal">
        <lane id=":1365388128_14_0" index="0" disallow="tram rail_urban rail rail_electric rail_fast ship" speed="8.00" length="14.19" shape="1216.93,1145.75 1220.80,1146.04 1223.85,1145.02 1226.05,1142.69 1227.41,1139.04"/>
    </edge>
    <edge id=":1365388128_15" function="internal">
        <lane id=":1365388128_15_0" index="0" disallow="tram rail_urban rail rail_electric rail_fast ship" speed="3.65" length="4.67" shape="1216.93,1145.75 1218.27,1145.22 1218.83,1144.53 1218.61,1143.66 1217.61,1142.62"/>
    </edge>
    <edge id=":1365388130_0" function="internal">
        <lane id=":1365388130_0_0" index="0" disallow="tram rail_urban rail rail_electric rail_fast ship" speed="11.11" length="19.15" shape="1006.04,955.38 1005.43,974.51"/>
    </edge>
    <edge id=":1365388130_1" function="internal">
        <lane id=":1365388130_1_0" index="0" disallow="tram rail_urban rail rail_electric rail_fast ship" speed="7.65" length="22.36" shape="1006.04,955.38 1006.52,962.85 1008.50,965.96 1011.98,964.73 1016.96,959.14"/>
    </edge>
    <edge id=":1365388130_2" function="internal">
        <lane id=":1365388130_2_0" index="0" disallow="tram rail_urban rail rail_electric rail_fast ship" speed="3.65" length="4.67" shape="1006.04,955.38 1006.80,956.60 1007.59,957.02 1008.40,956.64 1009.23,955.46"/>
    </edge>
    <edge id=":1365388130_3" function="internal">
        <lane id=":1365388130_3_0" index="0" disallow="tram rail_urban rail rail_electric rail_fast ship" speed="5.47" length="10.54" shape="1014.39,957.24 1012.04,959.87 1010.40,960.46 1009.46,958.99 1009.23,955.46"/>
    </edge>
    <edge id=":1365388130_4" function="internal">
        <lane id=":1365388130_4_0" index="0" disallow="tram rail_urban rail rail_electric rail_fast ship" speed="11.11" length="19.64" shape="1014.39,957.24 1011.77,960.93 1008.88,965.51 1006.50,970.27 1005.43,974.51"/>
    </edge>
    <edge id=":1365388130_5" function="internal">
        <lane id=":1365388130_5_0" index="0" disallow="tram rail_urban rail rail_electric rail_fast ship" speed="3.65" length="4.67" shape="1014.39,957.24 1014.32,958.68 1014.72,959.48 1015.61,959.63 1016.96,959.14"/>
    </edge>
    <edge id=":1365388130_6" function="internal">
        <lane id=":1365388130_6_0" index="0" disallow="tram rail_urban rail rail_electric rail_fast ship" speed="11.11" length="17.81" shape="1008.62,974.66 1009.60,970.69 1011.76,966.53 1014.44,962.56 1016.96,959.14"/>
    </edge>
    <edge id=":1365388130_7" function="internal">
        <lane id=":1365388130_7_0" index="0" disallow="tram rail_urban rail rail_electric rail_fast ship" speed="11.11" length="19.20" shape="1008.62,974.66 1009.23,955.46"/>
    </edge>
    <edge id=":1365388130_8" function="internal">
        <lane id=":1365388130_8_0" index="0" disallow="tram rail_urban rail rail_electric rail_fast ship" speed="3.65" length="4.67" shape="1008.62,974.66 1007.88,973.42 1007.10,972.99 1006.28,973.35 1005.43,974.51"/>
    </edge>
    <edge id=":1365388131_0" function="internal">
        <lane id=":1365388131_0_0" index="0" disallow="tram rail_urban rail rail_electric rail_fast ship" speed="10.19" length="12.97" shape="899.34,1043.21 901.82,1039.86 904.29,1037.45 906.75,1035.99 909.18,1035.48"/>
    </edge>
    <edge id=":1365388131_1" function="internal">
        <lane id=":1365388131_1_0" index="0" disallow="tram rail_urban rail rail_electric rail_fast ship" speed="3.65" length="4.67" shape="899.34,1043.21 899.32,1041.77 898.87,1041.00 897.98,1040.90 896.66,1041.47"/>
    </edge>
    <edge id=":1365388131_2" function="internal">
        <lane id=":1365388131_2_0" index="0" disallow="tram rail_urban rail rail_electric rail_fast ship" speed="5.60" length="9.32" shape="893.48,1035.70 896.30,1036.02 897.77,1037.09 897.89,1038.91 896.66,1041.47"/>
    </edge>
    <edge id=":1365388131_3" function="internal">
        <lane id=":1365388131_3_0" index="0" disallow="tram rail_urban rail rail_electric rail_fast ship" speed="16.67" length="15.71" shape="893.48,1035.70 909.18,1035.48"/>
        <lane id=":1365388131_3_1" index="1" disallow="tram rail_urban rail rail_electric rail_fast ship" speed="16.67" length="15.71" shape="893.43,1032.50 909.14,1032.28"/>
    </edge>
    <edge id=":1365388133_0" function="internal">
        <lane id=":1365388133_0_0" index="0" disallow="tram rail_urban rail rail_electric rail_fast ship" speed="6.21" length="9.05" shape="1277.52,1362.91 1276.38,1365.17 1274.82,1366.41 1272.84,1366.62 1270.44,1365.81"/>
    </edge>
    <edge id=":1365388133_1" function="internal">
        <lane id=":1365388133_1_0" index="0" disallow="tram rail_urban rail rail_electric rail_fast ship" speed="3.65" length="4.67" shape="1277.52,1362.91 1277.90,1364.30 1278.53,1364.93 1279.41,1364.81 1280.55,1363.92"/>
    </edge>
    <edge id=":1365388133_2" function="internal">
        <lane id=":1365388133_2_0" index="0" disallow="tram rail_urban rail rail_electric rail_fast ship" speed="7.11" length="9.81" shape="1283.37,1372.33 1281.38,1370.90 1280.26,1369.02 1279.98,1366.69 1280.55,1363.92"/>
    </edge>
    <edge id=":1365388133_3" function="internal">
        <lane id=":1365388133_3_0" index="0" disallow="tram rail_urban rail rail_electric rail_fast ship" speed="11.11" length="14.48" shape="1283.37,1372.33 1270.44,1365.81"/>
        <lane id=":1365388133_3_1" index="1" disallow="tram rail_urban rail rail_electric rail_fast ship" speed="11.11" length="14.48" shape="1281.93,1375.19 1269.00,1368.67"/>
    </edge>
    <edge id=":1365388134_0" function="internal">
        <lane id=":1365388134_0_0" index="0" disallow="tram rail_urban rail rail_electric rail_fast ship" speed="6.11" length="9.06" shape="1300.84,1291.21 1299.88,1293.59 1298.43,1294.91 1296.48,1295.19 1294.03,1294.42"/>
    </edge>
    <edge id=":1365388134_1" function="internal">
        <lane id=":1365388134_1_0" index="0" disallow="tram rail_urban rail rail_electric rail_fast ship" speed="11.11" length="15.42" shape="1300.84,1291.21 1296.56,1306.03"/>
    </edge>
    <edge id=":1365388134_2" function="internal">
        <lane id=":1365388134_2_0" index="0" disallow="tram rail_urban rail rail_electric rail_fast ship" speed="9.03" length="15.45" shape="1300.84,1291.21 1300.38,1295.38 1301.20,1298.91 1303.30,1301.80 1306.68,1304.05"/>
    </edge>
    <edge id=":1365388134_3" function="internal">
        <lane id=":1365388134_3_0" index="0" disallow="tram rail_urban rail rail_electric rail_fast ship" speed="3.65" length="4.67" shape="1300.84,1291.21 1301.33,1292.57 1302.01,1293.15 1302.88,1292.95 1303.95,1291.97"/>
    </edge>
    <edge id=":1365388134_4" function="internal">
        <lane id=":1365388134_4_0" index="0" disallow="tram rail_urban rail rail_electric rail_fast ship" speed="7.71" length="11.03" shape="1308.07,1301.16 1305.67,1299.56 1304.18,1297.50 1303.61,1294.97 1303.95,1291.97"/>
    </edge>
    <edge id=":1365388134_5" function="internal">
        <lane id=":1365388134_5_0" index="0" disallow="tram rail_urban rail rail_electric rail_fast ship" speed="11.11" length="15.57" shape="1308.07,1301.16 1294.03,1294.42"/>
    </edge>
    <edge id=":1365388134_6" function="internal">
        <lane id=":1365388134_6_0" index="0" disallow="tram rail_urban rail rail_electric rail_fast ship" speed="7.79" length="14.69" shape="1308.07,1301.16 1304.16,1299.93 1300.94,1300.34 1298.40,1302.37 1296.56,1306.03"/>
    </edge>
    <edge id=":1365388134_7" function="internal">
        <lane id=":1365388134_7_0" index="0" disallow="tram rail_urban rail rail_electric rail_fast ship" speed="3.65" length="4.67" shape="1308.07,1301.16 1306.64,1301.36 1305.93,1301.91 1305.95,1302.81 1306.68,1304.05"/>
    </edge>
    <edge id=":1365388134_8" function="internal">
        <lane id=":1365388134_8_0" index="0" disallow="tram rail_urban rail rail_electric rail_fast ship" speed="6.25" length="9.05" shape="1299.60,1307.04 1300.73,1304.79 1302.29,1303.54 1304.27,1303.29 1306.68,1304.05"/>
    </edge>
    <edge id=":1365388134_9" function="internal">
        <lane id=":1365388134_9_0" index="0" disallow="tram rail_urban rail rail_electric rail_fast ship" speed="11.11" length="15.68" shape="1299.60,1307.04 1303.95,1291.97"/>
    </edge>
    <edge id=":1365388134_10" function="internal">
        <lane id=":1365388134_10_0" index="0" disallow="tram rail_urban rail rail_electric rail_fast ship" speed="8.69" length="15.33" shape="1299.60,1307.04 1300.32,1303.04 1299.64,1299.60 1297.54,1296.73 1294.03,1294.42"/>
    </edge>
    <edge id=":1365388134_11" function="internal">
        <lane id=":1365388134_11_0" index="0" disallow="tram rail_urban rail rail_electric rail_fast ship" speed="3.65" length="4.67" shape="1299.60,1307.04 1299.22,1305.65 1298.59,1305.02 1297.70,1305.14 1296.56,1306.03"/>
    </edge>
    <edge id=":1365388134_12" function="internal">
        <lane id=":1365388134_12_0" index="0" disallow="tram rail_urban rail rail_electric rail_fast ship" speed="7.33" length="10.62" shape="1292.65,1297.31 1295.10,1298.91 1296.57,1300.90 1297.06,1303.27 1296.56,1306.03"/>
    </edge>
    <edge id=":1365388134_13" function="internal">
        <lane id=":1365388134_13_0" index="0" disallow="tram rail_urban rail rail_electric rail_fast ship" speed="11.11" length="15.57" shape="1292.65,1297.31 1306.68,1304.05"/>
    </edge>
    <edge id=":1365388134_14" function="internal">
        <lane id=":1365388134_14_0" index="0" disallow="tram rail_urban rail rail_electric rail_fast ship" speed="7.68" length="15.04" shape="1292.65,1297.31 1296.70,1298.58 1299.94,1298.12 1302.35,1295.92 1303.95,1291.97"/>
    </edge>
    <edge id=":1365388134_15" function="internal">
        <lane id=":1365388134_15_0" index="0" disallow="tram rail_urban rail rail_electric rail_fast ship" speed="3.65" length="4.67" shape="1292.65,1297.31 1294.08,1297.11 1294.78,1296.56 1294.77,1295.66 1294.03,1294.42"/>
    </edge>
    <edge id=":1365388135_0" function="internal">
        <lane id=":1365388135_0_0" index="0" disallow="tram rail_urban rail rail_electric rail_fast ship" speed="7.76" length="10.56" shape="1251.54,1029.42 1252.52,1026.42 1253.96,1024.24 1255.87,1022.87 1258.25,1022.32"/>
    </edge>
    <edge id=":1365388135_1" function="internal">
        <lane id=":1365388135_1_0" index="0" disallow="tram rail_urban rail rail_electric rail_fast ship" speed="3.65" length="4.67" shape="1251.54,1029.42 1251.01,1028.08 1250.32,1027.52 1249.45,1027.73 1248.41,1028.73"/>
    </edge>
    <edge id=":1365388135_2" function="internal">
        <lane id=":1365388135_2_0" index="0" disallow="tram rail_urban rail rail_electric rail_fast ship" speed="6.00" length="9.08" shape="1243.63,1023.10 1246.21,1023.33 1247.87,1024.35 1248.60,1026.15 1248.41,1028.73"/>
    </edge>
    <edge id=":1365388135_3" function="internal">
        <lane id=":1365388135_3_0" index="0" disallow="tram rail_urban rail rail_electric rail_fast ship" speed="22.22" length="14.64" shape="1243.63,1023.10 1258.25,1022.32"/>
    </edge>
    <edge id=":1365388138_0" function="internal">
        <lane id=":1365388138_0_0" index="0" disallow="tram rail_urban rail rail_electric rail_fast ship" speed="6.06" length="9.07" shape="1201.54,1243.50 1200.64,1245.92 1199.22,1247.27 1197.28,1247.56 1194.83,1246.78"/>
    </edge>
    <edge id=":1365388138_1" function="internal">
        <lane id=":1365388138_1_0" index="0" disallow="tram rail_urban rail rail_electric rail_fast ship" speed="11.11" length="14.83" shape="1201.54,1243.50 1200.65,1247.12 1199.57,1250.65 1198.26,1254.10 1196.70,1257.48"/>
    </edge>
    <edge id=":1365388138_2" function="internal">
        <lane id=":1365388138_2_0" index="0" disallow="tram rail_urban rail rail_electric rail_fast ship" speed="9.06" length="15.18" shape="1201.54,1243.50 1201.15,1247.71 1201.95,1251.24 1203.95,1254.09 1207.14,1256.25"/>
    </edge>
    <edge id=":1365388138_3" function="internal">
        <lane id=":1365388138_3_0" index="0" disallow="tram rail_urban rail rail_electric rail_fast ship" speed="3.65" length="4.67" shape="1201.54,1243.50 1202.06,1244.84 1202.76,1245.40 1203.63,1245.18 1204.66,1244.18"/>
    </edge>
    <edge id=":1365388138_4" function="internal">
        <lane id=":1365388138_4_0" index="0" disallow="tram rail_urban rail rail_electric rail_fast ship" speed="7.75" length="10.86" shape="1208.53,1253.36 1206.30,1251.83 1204.91,1249.79 1204.37,1247.24 1204.66,1244.18"/>
    </edge>
    <edge id=":1365388138_5" function="internal">
        <lane id=":1365388138_5_0" index="0" disallow="tram rail_urban rail rail_electric rail_fast ship" speed="11.11" length="15.20" shape="1208.53,1253.36 1194.83,1246.78"/>
    </edge>
    <edge id=":1365388138_6" function="internal">
        <lane id=":1365388138_6_0" index="0" disallow="tram rail_urban rail rail_electric rail_fast ship" speed="8.06" length="14.22" shape="1208.53,1253.36 1204.84,1252.21 1201.64,1252.51 1198.93,1254.26 1196.70,1257.48"/>
    </edge>
    <edge id=":1365388138_7" function="internal">
        <lane id=":1365388138_7_0" index="0" disallow="tram rail_urban rail rail_electric rail_fast ship" speed="3.65" length="4.67" shape="1208.53,1253.36 1207.10,1253.56 1206.39,1254.11 1206.41,1255.01 1207.14,1256.25"/>
    </edge>
    <edge id=":1365388138_8" function="internal">
        <lane id=":1365388138_8_0" index="0" disallow="tram rail_urban rail rail_electric rail_fast ship" speed="6.58" length="9.13" shape="1199.56,1258.92 1200.99,1256.85 1202.73,1255.71 1204.78,1255.51 1207.14,1256.25"/>
    </edge>
    <edge id=":1365388138_9" function="internal">
        <lane id=":1365388138_9_0" index="0" disallow="tram rail_urban rail rail_electric rail_fast ship" speed="11.11" length="15.64" shape="1199.56,1258.92 1201.16,1255.42 1202.56,1251.71 1203.74,1247.91 1204.66,1244.18"/>
    </edge>
    <edge id=":1365388138_10" function="internal">
        <lane id=":1365388138_10_0" index="0" disallow="tram rail_urban rail rail_electric rail_fast ship" speed="8.13" length="14.91" shape="1199.56,1258.92 1200.76,1255.18 1200.38,1251.91 1198.40,1249.11 1194.83,1246.78"/>
    </edge>
    <edge id=":1365388138_11" function="internal">
        <lane id=":1365388138_11_0" index="0" disallow="tram rail_urban rail rail_electric rail_fast ship" speed="3.65" length="4.67" shape="1199.56,1258.92 1199.38,1257.49 1198.85,1256.77 1197.96,1256.77 1196.70,1257.48"/>
    </edge>
    <edge id=":1365388138_12" function="internal">
        <lane id=":1365388138_12_0" index="0" disallow="tram rail_urban rail rail_electric rail_fast ship" speed="6.67" length="9.68" shape="1193.44,1249.67 1195.82,1251.20 1197.15,1253.01 1197.45,1255.10 1196.70,1257.48"/>
    </edge>
    <edge id=":1365388138_13" function="internal">
        <lane id=":1365388138_13_0" index="0" disallow="tram rail_urban rail rail_electric rail_fast ship" speed="11.11" length="15.20" shape="1193.44,1249.67 1207.14,1256.25"/>
    </edge>
    <edge id=":1365388138_14" function="internal">
        <lane id=":1365388138_14_0" index="0" disallow="tram rail_urban rail rail_electric rail_fast ship" speed="7.64" length="15.17" shape="1193.44,1249.67 1197.55,1250.96 1200.79,1250.48 1203.16,1248.22 1204.66,1244.18"/>
    </edge>
    <edge id=":1365388138_15" function="internal">
        <lane id=":1365388138_15_0" index="0" disallow="tram rail_urban rail rail_electric rail_fast ship" speed="3.65" length="4.67" shape="1193.44,1249.67 1194.87,1249.47 1195.58,1248.92 1195.56,1248.02 1194.83,1246.78"/>
    </edge>
    <edge id=":1365388139_0" function="internal">
        <lane id=":1365388139_0_0" index="0" disallow="tram rail_urban rail rail_electric rail_fast ship" speed="6.09" length="9.06" shape="1251.85,1267.68 1250.92,1270.07 1249.48,1271.41 1247.54,1271.69 1245.09,1270.92"/>
    </edge>
    <edge id=":1365388139_1" function="internal">
        <lane id=":1365388139_1_0" index="0" disallow="tram rail_urban rail rail_electric rail_fast ship" speed="8.84" length="14.62" shape="1251.85,1267.68 1251.38,1271.84 1252.04,1275.30 1253.86,1278.05 1256.83,1280.11"/>
    </edge>
    <edge id=":1365388139_2" function="internal">
        <lane id=":1365388139_2_0" index="0" disallow="tram rail_urban rail rail_electric rail_fast ship" speed="3.65" length="4.67" shape="1251.85,1267.68 1252.36,1269.03 1253.05,1269.60 1253.92,1269.39 1254.97,1268.40"/>
    </edge>
    <edge id=":1365388139_3" function="internal">
        <lane id=":1365388139_3_0" index="0" disallow="tram rail_urban rail rail_electric rail_fast ship" speed="7.49" length="10.25" shape="1258.21,1277.22 1256.22,1275.81 1255.02,1273.87 1254.60,1271.40 1254.97,1268.40"/>
    </edge>
    <edge id=":1365388139_4" function="internal">
        <lane id=":1365388139_4_0" index="0" disallow="tram rail_urban rail rail_electric rail_fast ship" speed="11.11" length="14.56" shape="1258.21,1277.22 1245.09,1270.92"/>
    </edge>
    <edge id=":1365388139_5" function="internal">
        <lane id=":1365388139_5_0" index="0" disallow="tram rail_urban rail rail_electric rail_fast ship" speed="3.65" length="4.67" shape="1258.21,1277.22 1256.78,1277.42 1256.08,1277.97 1256.09,1278.86 1256.83,1280.11"/>
    </edge>
    <edge id=":1365388139_6" function="internal">
        <lane id=":1365388139_6_0" index="0" disallow="tram rail_urban rail rail_electric rail_fast ship" speed="11.11" length="14.56" shape="1243.70,1273.80 1256.83,1280.11"/>
    </edge>
    <edge id=":1365388139_7" function="internal">
        <lane id=":1365388139_7_0" index="0" disallow="tram rail_urban rail rail_electric rail_fast ship" speed="7.66" length="15.10" shape="1243.70,1273.80 1247.78,1275.09 1251.02,1274.61 1253.42,1272.39 1254.97,1268.40"/>
    </edge>
    <edge id=":1365388139_8" function="internal">
        <lane id=":1365388139_8_0" index="0" disallow="tram rail_urban rail rail_electric rail_fast ship" speed="3.65" length="4.67" shape="1243.70,1273.80 1245.13,1273.60 1245.84,1273.05 1245.82,1272.16 1245.09,1270.92"/>
    </edge>
    <edge id=":1365388140_0" function="internal">
        <lane id=":1365388140_0_0" index="0" disallow="tram rail_urban rail rail_electric rail_fast ship" speed="10.50" length="13.17" shape="961.96,1042.38 964.55,1039.00 967.09,1036.56 969.57,1035.07 972.01,1034.53"/>
    </edge>
    <edge id=":1365388140_1" function="internal">
        <lane id=":1365388140_1_0" index="0" disallow="tram rail_urban rail rail_electric rail_fast ship" speed="3.65" length="4.67" shape="961.96,1042.38 961.97,1040.94 961.53,1040.16 960.65,1040.04 959.31,1040.58"/>
    </edge>
    <edge id=":1365388140_2" function="internal">
        <lane id=":1365388140_2_0" index="0" disallow="tram rail_urban rail rail_electric rail_fast ship" speed="5.59" length="9.35" shape="956.21,1034.83 959.05,1035.15 960.52,1036.22 960.60,1038.03 959.31,1040.58"/>
    </edge>
    <edge id=":1365388140_3" function="internal">