<?xml version="1.0" encoding="UTF-8"?>

<!-- generated on Thu Oct 22 21:05:12 2020 by Eclipse SUMO duarouter Version 1.7.0
<configuration xmlns:xsi="http://www.w3.org/2001/XMLSchema-instance" xsi:noNamespaceSchemaLocation="http://sumo.dlr.de/xsd/duarouterConfiguration.xsd">

    <input>
        <net-file value="/home/sami/sumo/tools/2020-10-22-21-04-59/osm.net.xml"/>
        <route-files value="/home/sami/sumo/tools/2020-10-22-21-04-59/osm.passenger.trips.xml"/>
    </input>

    <output>
        <output-file value="/home/sami/sumo/tools/2020-10-22-21-04-59/osm.passenger.trips.xml.tmp"/>
        <write-trips value="true"/>
    </output>

    <time>
        <begin value="0"/>
        <end value="3600"/>
    </time>

    <report>
        <no-warnings value="true"/>
        <ignore-errors value="true"/>
        <no-step-log value="true"/>
    </report>

</configuration>
-->

<routes xmlns:xsi="http://www.w3.org/2001/XMLSchema-instance" xsi:noNamespaceSchemaLocation="http://sumo.dlr.de/xsd/routes_file.xsd">
    <vType id="veh_passenger" vClass="passenger"/>
    <trip id="veh0" type="veh_passenger" depart="0.00" departLane="best" from="26153956#1" to="-176378461#1"/>
    <trip id="veh1" type="veh_passenger" depart="3.66" departLane="best" from="522866366#5" to="26633259#0"/>
    <trip id="veh2" type="veh_passenger" depart="7.33" departLane="best" from="550218845#3" to="-22689286#3"/>
    <trip id="veh3" type="veh_passenger" depart="10.99" departLane="best" from="176315969#1" to="-217958347#0"/>
    <trip id="veh4" type="veh_passenger" depart="14.65" departLane="best" from="-59259281#5" to="176378452#1"/>
    <trip id="veh5" type="veh_passenger" depart="18.31" departLane="best" from="-176378461#4" to="-59258897#0"/>
    <trip id="veh6" type="veh_passenger" depart="21.98" departLane="best" from="264199224#3" to="176378466#4"/>
    <trip id="veh7" type="veh_passenger" depart="25.64" departLane="best" from="-59259281#7" to="217958358#1"/>
    <trip id="veh8" type="veh_passenger" depart="29.30" departLane="best" from="524044030#1" to="26633280#5"/>
    <trip id="veh9" type="veh_passenger" depart="32.96" departLane="best" from="176315906#2" to="-522866454"/>
    <trip id="veh10" type="veh_passenger" depart="36.63" departLane="best" from="685609118" to="176315906#4"/>
    <trip id="veh11" type="veh_passenger" depart="40.29" departLane="best" from="-264199224#4" to="-264199229#0"/>
    <trip id="veh12" type="veh_passenger" depart="43.95" departLane="best" departSpeed="max" from="550218832#0" to="217958362#0"/>
    <trip id="veh13" type="veh_passenger" depart="47.61" departLane="best" from="529378824#0" to="522133802#8"/>
    <trip id="veh14" type="veh_passenger" depart="51.28" departLane="best" from="176378466#4" to="834867597#6"/>
    <trip id="veh15" type="veh_passenger" depart="54.94" departLane="best" departSpeed="max" from="176315956#0" to="176378467#2"/>
    <trip id="veh16" type="veh_passenger" depart="58.60" departLane="best" departSpeed="max" from="545034885" to="219912753#0"/>
    <trip id="veh17" type="veh_passenger" depart="62.26" departLane="best" from="550218832#2" to="217958347#1"/>
    <trip id="veh18" type="veh_passenger" depart="65.93" departLane="best" departSpeed="max" from="522133802#0" to="-217958359#0"/>
    <trip id="veh19" type="veh_passenger" depart="69.59" departLane="best" from="-721769139#0" to="122119704#3"/>
    <trip id="veh20" type="veh_passenger" depart="73.25" departLane="best" from="-219912755#2" to="-721769139#1"/>
    <trip id="veh21" type="veh_passenger" depart="76.92" departLane="best" from="-264199230#2" to="122119694#9"/>
    <trip id="veh22" type="veh_passenger" depart="80.58" departLane="best" from="26153932#3" to="176315942#4"/>
    <trip id="veh23" type="veh_passenger" depart="84.24" departLane="best" departSpeed="max" from="176315956#0" to="-59258946#5"/>
    <trip id="veh24" type="veh_passenger" depart="87.90" departLane="best" from="122119694#7" to="59259281#1"/>
    <trip id="veh25" type="veh_passenger" depart="91.57" departLane="best" from="-537967643" to="176315954#1"/>
    <trip id="veh26" type="veh_passenger" depart="95.23" departLane="best" from="92674004#2" to="26153932#0"/>
    <trip id="veh27" type="veh_passenger" depart="98.89" departLane="best" from="18821340#4" to="26633259#2"/>
    <trip id="veh28" type="veh_passenger" depart="102.55" departLane="best" departSpeed="max" from="545034885" to="523972982#3"/>
    <trip id="veh29" type="veh_passenger" depart="106.22" departLane="best" from="-721769139#1" to="-217958348#0"/>
    <trip id="veh30" type="veh_passenger" depart="109.88" departLane="best" departSpeed="max" from="176315905#0" to="122119694#5"/>
    <trip id="veh32" type="veh_passenger" depart="117.20" departLane="best" from="264199229#2" to="176315956#2"/>
    <trip id="veh33" type="veh_passenger" depart="120.87" departLane="best" from="58726556#5" to="176315969#5"/>
    <trip id="veh34" type="veh_passenger" depart="124.53" departLane="best" from="122119694#6" to="-838434721"/>
    <trip id="veh36" type="veh_passenger" depart="131.85" departLane="best" from="92674006#1" to="176378452#3"/>
    <trip id="veh37" type="veh_passenger" depart="135.52" departLane="best" from="-264199224#3" to="-217958359#1"/>
    <trip id="veh38" type="veh_passenger" depart="139.18" departLane="best" from="-26633259#11" to="219912755#1"/>
    <trip id="veh39" type="veh_passenger" depart="142.84" departLane="best" from="523972982#5" to="176315957#2"/>
    <trip id="veh40" type="veh_passenger" depart="146.51" departLane="best" from="-217958747#0" to="176315954#1"/>
    <trip id="veh41" type="veh_passenger" depart="150.17" departLane="best" from="92674006#1" to="176378458#4"/>
    <trip id="veh42" type="veh_passenger" depart="153.83" departLane="best" from="834867597#1" to="550218844#2"/>
    <trip id="veh43" type="veh_passenger" depart="157.49" departLane="best" from="-122119709" to="522133802#4"/>
    <trip id="veh44" type="veh_passenger" depart="161.16" departLane="best" from="26633280#2" to="176378466#1"/>
    <trip id="veh45" type="veh_passenger" depart="164.82" departLane="best" from="122119694#7" to="26153932#1"/>
    <trip id="veh46" type="veh_passenger" depart="168.48" departLane="best" from="-26633259#12" to="176315968#0"/>
    <trip id="veh47" type="veh_passenger" depart="172.14" departLane="best" from="176315970#1" to="721769139#0"/>
    <trip id="veh48" type="veh_passenger" depart="175.81" departLane="best" from="550218844#0" to="122119694#3"/>
    <trip id="veh49" type="veh_passenger" depart="179.47" departLane="best" from="176378452#3" to="-58726549#7"/>
    <trip id="veh50" type="veh_passenger" depart="183.13" departLane="best" from="58726556#3" to="550218845#2"/>
    <trip id="veh51" type="veh_passenger" depart="186.79" departLane="best" from="122119715#0" to="26153932#0"/>
    <trip id="veh52" type="veh_passenger" depart="190.46" departLane="best" from="219912753#1" to="-522866399"/>
    <trip id="veh53" type="veh_passenger" depart="194.12" departLane="best" departSpeed="max" from="523972982#0" to="176378466#1"/>
    <trip id="veh54" type="veh_passenger" depart="197.78" departLane="best" from="523972982#1" to="176378458#4"/>
    <trip id="veh55" type="veh_passenger" depart="201.44" departLane="best" from="-122119696#0" to="176315906#1"/>
    <trip id="veh56" type="veh_passenger" depart="205.11" departLane="best" from="550218844#1" to="545034883"/>
    <trip id="veh57" type="veh_passenger" depart="208.77" departLane="best" from="122119720" to="-217958362#0"/>
    <trip id="veh58" type="veh_passenger" depart="212.43" departLane="best" from="550218844#1" to="59259281#8"/>
    <trip id="veh59" type="veh_passenger" depart="216.10" departLane="best" from="-22689286#3" to="176315970#4"/>
    <trip id="veh60" type="veh_passenger" depart="219.76" departLane="best" from="-219912112#1" to="522866456"/>
    <trip id="veh61" type="veh_passenger" depart="223.42" departLane="best" departSpeed="max" from="523972982#0" to="-26633280#4"/>
    <trip id="veh62" type="veh_passenger" depart="227.08" departLane="best" from="122119694#6" to="550218845#3"/>
    <trip id="veh63" type="veh_passenger" depart="230.75" departLane="best" from="176315969#1" to="-59259119#1"/>
    <trip id="veh64" type="veh_passenger" depart="234.41" departLane="best" from="176378467#1" to="522133802#8"/>
    <trip id="veh65" type="veh_passenger" depart="238.07" departLane="best" departSpeed="max" from="176315970#0" to="176378458#3"/>
    <trip id="veh66" type="veh_passenger" depart="241.73" departLane="best" from="-26633259#9" to="-59259281#7"/>
    <trip id="veh67" type="veh_passenger" depart="245.40" departLane="best" from="176315906#1" to="217958358#0"/>
    <trip id="veh68" type="veh_passenger" depart="249.06" departLane="best" from="-721769139#1" to="58726556#3"/>
    <trip id="veh69" type="veh_passenger" depart="252.72" departLane="best" from="550218832#1" to="-219912112#1"/>
    <trip id="veh70" type="veh_passenger" depart="256.38" departLane="best" from="-756826345" to="264199230#0"/>
    <trip id="veh71" type="veh_passenger" depart="260.05" departLane="best" from="-59259281#11" to="-39997663#1"/>
    <trip id="veh72" type="veh_passenger" depart="263.71" departLane="best" from="59258946#3" to="18821340#6"/>
    <trip id="veh74" type="veh_passenger" depart="271.04" departLane="best" from="529378824#0" to="-58726589#0"/>
    <trip id="veh75" type="veh_passenger" depart="274.70" departLane="best" from="-264199229#2" to="176315966#2"/>
    <trip id="veh76" type="veh_passenger" depart="278.36" departLane="best" from="92674004#0" to="-264199229#2"/>
    <trip id="veh78" type="veh_passenger" depart="285.69" departLane="best" from="550218832#2" to="122119692#0"/>
    <trip id="veh79" type="veh_passenger" depart="289.35" departLane="best" from="-59258866#1" to="176315969#3"/>
    <trip id="veh80" type="veh_passenger" depart="293.01" departLane="best" from="176315969#1" to="122119694#9"/>
    <trip id="veh81" type="veh_passenger" depart="296.67" departLane="best" departSpeed="max" from="176315970#0" to="550218844#2"/>
    <trip id="veh82" type="veh_passenger" depart="300.34" departLane="best" from="18821340#0" to="-217958360#1"/>
    <trip id="veh83" type="veh_passenger" depart="304.00" departLane="best" from="92674006#2" to="545034883"/>
    <trip id="veh84" type="veh_passenger" depart="307.66" departLane="best" from="721769368" to="59258946#2"/>
    <trip id="veh85" type="veh_passenger" depart="311.32" departLane="best" departSpeed="max" from="550218832#0" to="-537967643"/>
    <trip id="veh86" type="veh_passenger" depart="314.99" departLane="best" departSpeed="max" from="176378452#0" to="-59259281#0"/>
    <trip id="veh88" type="veh_passenger" depart="322.31" departLane="best" departSpeed="max" from="176315956#0" to="92674004#0"/>
    <trip id="veh89" type="veh_passenger" depart="325.97" departLane="best" from="122119694#6" to="523972982#5"/>
    <trip id="veh90" type="veh_passenger" depart="329.64" departLane="best" from="176315970#1" to="176315957#2"/>
    <trip id="veh91" type="veh_passenger" depart="333.30" departLane="best" from="685609118" to="92674006#1"/>
    <trip id="veh92" type="veh_passenger" depart="336.96" departLane="best" from="18821340#2" to="522133802#3"/>
    <trip id="veh93" type="veh_passenger" depart="340.63" departLane="best" from="-522866458" to="122119708#0"/>
    <trip id="veh94" type="veh_passenger" depart="344.29" departLane="best" from="176378467#2" to="522866455"/>
    <trip id="veh95" type="veh_passenger" depart="347.95" departLane="best" from="176378452#5" to="550218832#8"/>
    <trip id="veh96" type="veh_passenger" depart="351.61" departLane="best" from="-524044030#0" to="721769367#1"/>
    <trip id="veh97" type="veh_passenger" depart="355.28" departLane="best" from="-219912755#2" to="-58726556#5"/>
    <trip id="veh98" type="veh_passenger" depart="358.94" departLane="best" from="217958362#1" to="264199239#1"/>
    <trip id="veh99" type="veh_passenger" depart="362.60" departLane="best" from="550218845#2" to="-838434721"/>
    <trip id="veh100" type="veh_passenger" depart="366.26" departLane="best" from="217958362#1" to="219912753#0"/>
    <trip id="veh101" type="veh_passenger" depart="369.93" departLane="best" from="176315968#1" to="217958352"/>
    <trip id="veh102" type="veh_passenger" depart="373.59" departLane="best" departSpeed="max" from="176378466#0" to="59259281#0"/>
    <trip id="veh103" type="veh_passenger" depart="377.25" departLane="best" from="-59258946#4" to="522133802#2"/>
    <trip id="veh104" type="veh_passenger" depart="380.91" departLane="best" from="-835662244#0" to="176315956#2"/>
    <trip id="veh105" type="veh_passenger" depart="384.58" departLane="best" from="26633259#2" to="122119709"/>
    <trip id="veh106" type="veh_passenger" depart="388.24" departLane="best" departSpeed="max" from="176315905#0" to="522866456"/>
    <trip id="veh107" type="veh_passenger" depart="391.90" departLane="best" from="-219912753#1" to="176315969#5"/>
    <trip id="veh108" type="veh_passenger" depart="395.56" departLane="best" from="-219912753#2" to="-59259119#2"/>
    <trip id="veh109" type="veh_passenger" depart="399.23" departLane="best" from="122119694#6" to="59259119#1"/>
    <trip id="veh110" type="veh_passenger" depart="402.89" departLane="best" from="550218844#2" to="550218845#5"/>
    <trip id="veh111" type="veh_passenger" depart="406.55" departLane="best" departSpeed="max" from="176315956#0" to="-522866458"/>
    <trip id="veh112" type="veh_passenger" depart="410.22" departLane="best" departSpeed="max" from="545034885" to="39997663#3"/>
    <trip id="veh113" type="veh_passenger" depart="413.88" departLane="best" from="219912754#0" to="92674004#1"/>
    <trip id="veh114" type="veh_passenger" depart="417.54" departLane="best" from="264199229#1" to="-122119708#0"/>
    <trip id="veh115" type="veh_passenger" depart="421.20" departLane="best" from="529378824#4" to="122119708#2"/>
    <trip id="veh116" type="veh_passenger" depart="424.87" departLane="best" from="264199239#1" to="59259281#11"/>
    <trip id="veh117" type="veh_passenger" depart="428.53" departLane="best" from="-39997663#4" to="-26633259#2"/>
    <trip id="veh118" type="veh_passenger" depart="432.19" departLane="best" from="122119694#9" to="217958362#0"/>
    <trip id="veh119" type="veh_passenger" depart="435.85" departLane="best" from="522133802#3" to="-59258946#0"/>
    <trip id="veh120" type="veh_passenger" depart="439.52" departLane="best" from="26153932#3" to="122119694#3"/>
    <trip id="veh121" type="veh_passenger" depart="443.18" departLane="best" departSpeed="max" from="176378452#0" to="58726556#3"/>
    <trip id="veh122" type="veh_passenger" depart="446.84" departLane="best" departSpeed="max" from="545034885" to="-264199224#3"/>
    <trip id="veh123" type="veh_passenger" depart="450.50" departLane="best" from="176315969#1" to="122119694#9"/>
    <trip id="veh124" type="veh_passenger" depart="454.17" departLane="best" from="-122119696#2" to="523972982#1"/>
    <trip id="veh125" type="veh_passenger" depart="457.83" departLane="best" from="522866397" to="176378467#2"/>
    <trip id="veh126" type="veh_passenger" depart="461.49" departLane="best" from="176315969#2" to="-122119708#1"/>
    <trip id="veh127" type="veh_passenger" depart="465.15" departLane="best" from="-219912754#1" to="550218845#5"/>
    <trip id="veh128" type="veh_passenger" depart="468.82" departLane="best" from="58726549#4" to="176378466#4"/>
    <trip id="veh129" type="veh_passenger" depart="472.48" departLane="best" departSpeed="max" from="545034885" to="217958350"/>
    <trip id="veh130" type="veh_passenger" depart="476.14" departLane="best" from="122119720" to="58726549#6"/>
    <trip id="veh131" type="veh_passenger" depart="479.81" departLane="best" from="523972982#5" to="550218844#2"/>
    <trip id="veh132" type="veh_passenger" depart="483.47" departLane="best" from="58726547#1" to="-59259119#0"/>
    <trip id="veh133" type="veh_passenger" depart="487.13" departLane="best" from="122119694#0" to="-264199230#2"/>
    <trip id="veh134" type="veh_passenger" depart="490.79" departLane="best" from="523972982#1" to="550218845#5"/>
    <trip id="veh135" type="veh_passenger" depart="494.46" departLane="best" from="176315966#0" to="219912753#2"/>
    <trip id="veh136" type="veh_passenger" depart="498.12" departLane="best" from="-522866457" to="59258946#5"/>
    <trip id="veh137" type="veh_passenger" depart="501.78" departLane="best" from="550218832#3" to="835662244#1"/>
    <trip id="veh138" type="veh_passenger" depart="505.44" departLane="best" from="529378824#2" to="550218845#5"/>
    <trip id="veh139" type="veh_passenger" depart="509.11" departLane="best" from="-176378461#1" to="522866366#4"/>
    <trip id="veh140" type="veh_passenger" depart="512.77" departLane="best" from="176315905#2" to="59258946#5"/>
    <trip id="veh141" type="veh_passenger" depart="516.43" departLane="best" from="524044030#0" to="550218844#3"/>
    <trip id="veh142" type="veh_passenger" depart="520.09" departLane="best" from="529378824#2" to="122119694#5"/>
    <trip id="veh143" type="veh_passenger" depart="523.76" departLane="best" from="523972982#4" to="-26633259#0"/>
    <trip id="veh144" type="veh_passenger" depart="527.42" departLane="best" from="550218832#7" to="550218844#1"/>
    <trip id="veh145" type="veh_passenger" depart="531.08" departLane="best" from="-59259281#8" to="545034115"/>
    <trip id="veh146" type="veh_passenger" depart="534.74" departLane="best" from="523972982#5" to="-59259281#9"/>
    <trip id="veh147" type="veh_passenger" depart="538.41" departLane="best" from="-176378461#0" to="-59258866#1"/>
    <trip id="veh148" type="veh_passenger" depart="542.07" departLane="best" from="176315905#0-AddedOffRampEdge" to="550218844#4"/>
    <trip id="veh149" type="veh_passenger" depart="545.73" departLane="best" from="721769367#1" to="122119696#0"/>
    <trip id="veh150" type="veh_passenger" depart="549.40" departLane="best" from="26153956#2" to="176315957#0"/>
    <trip id="veh151" type="veh_passenger" depart="553.06" departLane="best" from="59259119#0" to="-26633259#2"/>
    <trip id="veh152" type="veh_passenger" depart="556.72" departLane="best" from="834867597#1" to="-58726549#7"/>
    <trip id="veh153" type="veh_passenger" depart="560.38" departLane="best" from="721769139#2" to="122119694#4"/>
    <trip id="veh154" type="veh_passenger" depart="564.05" departLane="best" from="-26633259#10" to="176315968#0"/>
    <trip id="veh155" type="veh_passenger" depart="567.71" departLane="best" from="522133802#8" to="122119720"/>
    <trip id="veh156" type="veh_passenger" depart="571.37" departLane="best" from="219912112#1" to="176378452#3"/>
    <trip id="veh157" type="veh_passenger" depart="575.03" departLane="best" departSpeed="max" from="176315956#0" to="217958347#0"/>
    <trip id="veh158" type="veh_passenger" depart="578.70" departLane="best" from="122119694#10" to="39997664#2"/>
    <trip id="veh159" type="veh_passenger" depart="582.36" departLane="best" from="176378467#0" to="522133802#4"/>
    <trip id="veh160" type="veh_passenger" depart="586.02" departLane="best" from="522866398" to="264199230#2"/>
    <trip id="veh161" type="veh_passenger" depart="589.68" departLane="best" from="176315955#0" to="-219912112#0"/>
    <trip id="veh162" type="veh_passenger" depart="593.35" departLane="best" from="264199239#1" to="176315906#3"/>
    <trip id="veh163" type="veh_passenger" depart="597.01" departLane="best" departSpeed="max" from="176315905#0" to="550218832#5"/>
    <trip id="veh164" type="veh_passenger" depart="600.67" departLane="best" from="522133802#4" to="122119709"/>
    <trip id="veh165" type="veh_passenger" depart="604.33" departLane="best" departSpeed="max" from="176315905#0" to="176315957#2"/>
    <trip id="veh166" type="veh_passenger" depart="608.00" departLane="best" from="-26633280#5" to="176315957#2"/>
    <trip id="veh167" type="veh_passenger" depart="611.66" departLane="best" from="59259119#1" to="26633259#0"/>
    <trip id="veh168" type="veh_passenger" depart="615.32" departLane="best" from="58726549#3" to="217958748"/>
    <trip id="veh169" type="veh_passenger" depart="618.99" departLane="best" from="122119715#2" to="176378467#0"/>
    <trip id="veh170" type="veh_passenger" depart="622.65" departLane="best" from="176315969#3" to="217958348#1"/>
    <trip id="veh171" type="veh_passenger" depart="626.31" departLane="best" from="264199229#1" to="176315969#5"/>
    <trip id="veh172" type="veh_passenger" depart="629.97" departLane="best" departSpeed="max" from="176315970#0" to="-59259281#0"/>
    <trip id="veh174" type="veh_passenger" depart="637.30" departLane="best" from="523972982#5" to="-58726544#1"/>
    <trip id="veh175" type="veh_passenger" depart="640.96" departLane="best" from="26153932#2" to="176315906#4"/>
    <trip id="veh176" type="veh_passenger" depart="644.62" departLane="best" from="529378824#5" to="522866456"/>
    <trip id="veh177" type="veh_passenger" depart="648.29" departLane="best" from="26633259#3" to="-59259281#7"/>
    <trip id="veh178" type="veh_passenger" depart="651.95" departLane="best" from="-59258946#0" to="-176378461#1"/>
    <trip id="veh179" type="veh_passenger" depart="655.61" departLane="best" departSpeed="max" from="550218832#0" to="-219912753#1"/>
    <trip id="veh180" type="veh_passenger" depart="659.27" departLane="best" from="176315968#0" to="219912758#1"/>
    <trip id="veh181" type="veh_passenger" depart="662.94" departLane="best" from="-59258870#1" to="26633280#4"/>
    <trip id="veh182" type="veh_passenger" depart="666.60" departLane="best" departSpeed="max" from="176378452#0" to="-835662244#1"/>
    <trip id="veh183" type="veh_passenger" depart="670.26" departLane="best" from="264199230#0" to="-122119703#0"/>
    <trip id="veh184" type="veh_passenger" depart="673.92" departLane="best" from="-26633259#0" to="176315960#1"/>
    <trip id="veh185" type="veh_passenger" depart="677.59" departLane="best" from="-58726549#7" to="721769139#4"/>
    <trip id="veh186" type="veh_passenger" depart="681.25" departLane="best" departSpeed="max" from="176378466#0" to="-217958360#1"/>
    <trip id="veh187" type="veh_passenger" depart="684.91" departLane="best" from="122119694#0" to="550218832#5"/>
    <trip id="veh188" type="veh_passenger" depart="688.58" departLane="best" from="26633259#10" to="92674004#2"/>
    <trip id="veh189" type="veh_passenger" depart="692.24" departLane="best" from="217958363#0" to="677783112"/>
    <trip id="veh190" type="veh_passenger" depart="695.90" departLane="best" from="550218845#2" to="217958747#1"/>
    <trip id="veh191" type="veh_passenger" depart="699.56" departLane="best" from="522133802#4" to="176378452#1"/>
    <trip id="veh192" type="veh_passenger" depart="703.23" departLane="best" departSpeed="max" from="545034885" to="176378467#0"/>
    <trip id="veh193" type="veh_passenger" depart="706.89" departLane="best" from="58726544#0" to="522866398"/>
    <trip id="veh194" type="veh_passenger" depart="710.55" departLane="best" departSpeed="max" from="523972982#0" to="176378458#4"/>
    <trip id="veh195" type="veh_passenger" depart="714.21" departLane="best" from="-219912755#0" to="122119703#1"/>
    <trip id="veh197" type="veh_passenger" depart="721.54" departLane="best" from="-721769139#3" to="26633280#2"/>
    <trip id="veh198" type="veh_passenger" depart="725.20" departLane="best" departSpeed="max" from="522133802#0" to="-217958743#1"/>
    <trip id="veh199" type="veh_passenger" depart="728.86" departLane="best" from="176315966#0" to="176378466#3"/>
    <trip id="veh200" type="veh_passenger" depart="732.53" departLane="best" from="176315968#0" to="-59258946#3"/>
    <trip id="veh201" type="veh_passenger" depart="736.19" departLane="best" from="176315968#1" to="58726556#3"/>
    <trip id="veh202" type="veh_passenger" depart="739.85" departLane="best" from="217958359#3" to="26633280#3"/>
    <trip id="veh203" type="veh_passenger" depart="743.51" departLane="best" departSpeed="max" from="550218832#0" to="523775265#0"/>
    <trip id="veh204" type="veh_passenger" depart="747.18" departLane="best" departSpeed="max" from="176315956#0" to="-122119703#0"/>
    <trip id="veh206" type="veh_passenger" depart="754.50" departLane="best" from="176315968#1" to="522866454"/>
    <trip id="veh207" type="veh_passenger" depart="758.17" departLane="best" from="176378467#3" to="217958361#4"/>
    <trip id="veh208" type="veh_passenger" depart="761.83" departLane="best" from="-59259281#7" to="-59259281#3"/>
    <trip id="veh209" type="veh_passenger" depart="765.49" departLane="best" departSpeed="max" from="176315970#0" to="-176378461#6"/>
    <trip id="veh210" type="veh_passenger" depart="769.15" departLane="best" from="176315906#1" to="26633259#10"/>
    <trip id="veh211" type="veh_passenger" depart="772.82" departLane="best" from="176315960#0" to="-529378826"/>
    <trip id="veh212" type="veh_passenger" depart="776.48" departLane="best" from="176315970#4" to="-26633280#4"/>
    <trip id="veh213" type="veh_passenger" depart="780.14" departLane="best" from="22689286#1" to="-176378461#4"/>
    <trip id="veh214" type="veh_passenger" depart="783.80" departLane="best" from="176315957#0" to="18821340#2"/>
    <trip id="veh215" type="veh_passenger" depart="787.47" departLane="best" from="-39997663#5" to="176315969#5"/>
    <trip id="veh216" type="veh_passenger" depart="791.13" departLane="best" from="-217958361#0" to="176315954#0"/>
    <trip id="veh217" type="veh_passenger" depart="794.79" departLane="best" from="-59259281#1" to="176315906#2"/>
    <trip id="veh218" type="veh_passenger" depart="798.45" departLane="best" departSpeed="max" from="523972982#0" to="176315954#0"/>
    <trip id="veh219" type="veh_passenger" depart="802.12" departLane="best" from="523775265#0" to="545034883"/>
    <trip id="veh220" type="veh_passenger" depart="805.78" departLane="best" from="122119694#1" to="-219912755#2"/>
    <trip id="veh221" type="veh_passenger" depart="809.44" departLane="best" from="-122119718#0" to="176378466#2"/>
    <trip id="veh222" type="veh_passenger" depart="813.11" departLane="best" from="92674006#2" to="176315906#4"/>
    <trip id="veh223" type="veh_passenger" depart="816.77" departLane="best" from="264199224#4" to="523972982#4"/>
    <trip id="veh224" type="veh_passenger" depart="820.43" departLane="best" from="264199228" to="522866456"/>
    <trip id="veh225" type="veh_passenger" depart="824.09" departLane="best" from="59259281#4" to="-59258897#0"/>
    <trip id="veh226" type="veh_passenger" depart="827.76" departLane="best" from="-122119718#1" to="-522866398"/>
    <trip id="veh227" type="veh_passenger" depart="831.42" departLane="best" from="-26633280#5" to="264199230#1"/>
    <trip id="veh228" type="veh_passenger" depart="835.08" departLane="best" from="18821340#7" to="-59259281#11"/>
    <trip id="veh229" type="veh_passenger" depart="838.74" departLane="best" departSpeed="max" from="522133802#0" to="523775265#0"/>
    <trip id="veh230" type="veh_passenger" depart="842.41" departLane="best" from="522866455" to="-26633259#13"/>
    <trip id="veh231" type="veh_passenger" depart="846.07" departLane="best" from="529378824#5" to="834867597#1"/>
    <trip id="veh232" type="veh_passenger" depart="849.73" departLane="best" from="-26633259#1" to="-176378461#3"/>
    <trip id="veh233" type="veh_passenger" depart="853.39" departLane="best" departSpeed="max" from="176315905#0" to="26633259#0"/>
    <trip id="veh234" type="veh_passenger" depart="857.06" departLane="best" from="685609118" to="176315956#2"/>
    <trip id="veh235" type="veh_passenger" depart="860.72" departLane="best" from="522133802#2" to="-219912754#0"/>
    <trip id="veh236" type="veh_passenger" depart="864.38" departLane="best" from="39997663#3" to="219912755#1"/>
    <trip id="veh237" type="veh_passenger" depart="868.04" departLane="best" from="-264199238#0" to="523972982#3"/>
    <trip id="veh238" type="veh_passenger" depart="871.71" departLane="best" departSpeed="max" from="550218832#0" to="217958361#2"/>
    <trip id="veh239" type="veh_passenger" depart="875.37" departLane="best" from="-26633259#9" to="92674004#0"/>
    <trip id="veh240" type="veh_passenger" depart="879.03" departLane="best" from="523972982#3" to="176315906#4"/>
    <trip id="veh241" type="veh_passenger" depart="882.70" departLane="best" from="176315969#2" to="176315942#4"/>
    <trip id="veh242" type="veh_passenger" depart="886.36" departLane="best" from="176378458#2" to="176315906#4"/>
    <trip id="veh243" type="veh_passenger" depart="890.02" departLane="best" departSpeed="max" from="550218832#0" to="545034115"/>
    <trip id="veh244" type="veh_passenger" depart="893.68" departLane="best" from="-264199239#1" to="721769367#1"/>
    <trip id="veh245" type="veh_passenger" depart="897.35" departLane="best" from="26153932#3" to="545034115"/>
    <trip id="veh246" type="veh_passenger" depart="901.01" departLane="best" departSpeed="max" from="522133802#0" to="176315968#0"/>
    <trip id="veh247" type="veh_passenger" depart="904.67" departLane="best" from="122119694#8" to="529378824#4"/>
    <trip id="veh248" type="veh_passenger" depart="908.33" departLane="best" from="176378467#0" to="176315970#3"/>
    <trip id="veh249" type="veh_passenger" depart="912.00" departLane="best" from="176315969#4" to="522866366#0"/>
    <trip id="veh250" type="veh_passenger" depart="915.66" departLane="best" from="122119694#7" to="550218832#7"/>
    <trip id="veh251" type="veh_passenger" depart="919.32" departLane="best" departSpeed="max" from="545034885" to="-22689286#3"/>
    <trip id="veh252" type="veh_passenger" depart="922.98" departLane="best" from="176315970#4" to="217958743#1"/>
    <trip id="veh253" type="veh_passenger" depart="926.65" departLane="best" departSpeed="max" from="176315956#0" to="-176378461#6"/>